data/BPA2.m
function mpc = BPA2

%% MATPOWER Case Format : Version 2
mpc.version = '2';

%%-----  Power Flow Data  -----%%
%% system MVA base
mpc.baseMVA = 100;

%% bus data
%	bus_i	type	Pd	Qd	Gs	Bs	area	Vm	Va	baseKV	zone	Vmax	Vmin
mpc.bus = [
	1	1	0	0	0	0	0	1	0	0	0	0	0;
	2	1	0	0	0	0	0	1	0	0	0	0	0;
	3	1	0	0	0	0	0	1	0	0	0	0	0;
	4	1	0	0	0	0	0	1	0	0	0	0	0;
	5	1	0	0	0	0	0	1	0	0	0	0	0;
	6	1	0	0	0	0	0	1	0	0	0	0	0;
	7	1	0	0	0	0	0	1	0	0	0	0	0;
	8	1	0	0	0	0	0	1	0	0	0	0	0;
	9	1	0	0	0	0	0	1	0	0	0	0	0;
	10	1	0	0	0	0	0	1	0	0	0	0	0;
	11	1	0	0	0	0	0	1	0	0	0	0	0;
	12	1	0	0	0	0	0	1	0	0	0	0	0;
	13	1	0.604970816	0	0	0	0	1	0	0	0	0	0;
	14	2	0	0	0	0	0	1	0	0	0	0	0;
	15	1	0	0	0	0	0	1	0	0	0	0	0;
	16	1	0.649736099	0	0	0	0	1	0	0	0	0	0;
	17	1	0.669560724	0	0	0	0	1	0	0	0	0	0;
	18	2	0	0	0	0	0	1	0	0	0	0	0;
	19	1	2.78823759	0	0	0	0	1	0	0	0	0	0;
	20	1	0	0	0	0	0	1	0	0	0	0	0;
	21	2	0	0	0	0	0	1	0	0	0	0	0;
	22	1	0	0	0	0	0	1	0	0	0	0	0;
	23	2	0	0	0	0	0	1	0	0	0	0	0;
	24	1	0	0	0	0	0	1	0	0	0	0	0;
	25	1	0	0	0	0	0	1	0	0	0	0	0;
	26	2	0	0	0	0	0	1	0	0	0	0	0;
	27	2	0	0	0	0	0	1	0	0	0	0	0;
	28	1	0	0	0	0	0	1	0	0	0	0	0;
	29	1	0	0	0	0	0	1	0	0	0	0	0;
	30	1	0	0	0	0	0	1	0	0	0	0	0;
	31	2	0	0	0	0	0	1	0	0	0	0	0;
	32	1	0	0	0	0	0	1	0	0	0	0	0;
	33	1	0.278823759	0	0	0	0	1	0	0	0	0	0;
	34	1	0	0	0	0	0	1	0	0	0	0	0;
	35	1	0	0	0	0	0	1	0	0	0	0	0;
	36	1	0.0172666089	0	0	0	0	1	0	0	0	0	0;
	37	1	0	0	0	0	0	1	0	0	0	0	0;
	38	2	0	0	0	0	0	1	0	0	0	0	0;
	39	1	7.44254795	0	0	0	0	1	0	0	0	0	0;
	40	1	0	0	0	0	0	1	0	0	0	0	0;
	41	1	0	0	0	0	0	1	0	0	0	0	0;
	42	2	0	0	0	0	0	1	0	0	0	0	0;
	43	1	0	0	0	0	0	1	0	0	0	0	0;
	44	1	0	0	0	0	0	1	0	0	0	0	0;
	45	1	0	0	0	0	0	1	0	0	0	0	0;
	46	2	0	0	0	0	0	1	0	0	0	0	0;
	47	1	38.5013404	0	0	0	0	1	0	0	0	0	0;
	48	1	10.695705	0	0	0	0	1	0	0	0	0	0;
	49	1	25.4887123	0	0	0	0	1	0	0	0	0	0;
	50	1	1.08779636	0	0	0	0	1	0	0	0	0	0;
	51	2	0	0	0	0	0	1	0	0	0	0	0;
	52	1	0	0	0	0	0	1	0	0	0	0	0;
	53	1	0	0	0	0	0	1	0	0	0	0	0;
	54	1	12.8278114	0	0	0	0	1	0	0	0	0	0;
	55	1	3.62470887	0	0	0	0	1	0	0	0	0	0;
	56	1	19.9946494	0	0	0	0	1	0	0	0	0	0;
	57	1	0	0	0	0	0	1	0	0	0	0	0;
	58	1	0	0	0	0	0	1	0	0	0	0	0;
	59	1	0	0	0	0	0	1	0	0	0	0	0;
	60	1	0	0	0	0	0	1	0	0	0	0	0;
	61	1	0.573594705	0	0	0	0	1	0	0	0	0	0;
	62	1	0	0	0	0	0	1	0	0	0	0	0;
	63	2	0	0	0	0	0	1	0	0	0	0	0;
	64	1	1.8078779	0	0	0	0	1	0	0	0	0	0;
	65	1	0	0	0	0	0	1	0	0	0	0	0;
	66	1	0	0	0	0	0	1	0	0	0	0	0;
	67	1	0	0	0	0	0	1	0	0	0	0	0;
	68	1	4.65303135	0	0	0	0	1	0	0	0	0	0;
	69	1	0	0	0	0	0	1	0	0	0	0	0;
	70	1	0	0	0	0	0	1	0	0	0	0	0;
	71	1	1.32313385	0	0	0	0	1	0	0	0	0	0;
	72	2	0	0	0	0	0	1	0	0	0	0	0;
	73	1	0	0	0	0	0	1	0	0	0	0	0;
	74	1	2.66865033	0	0	0	0	1	0	0	0	0	0;
	75	1	0	0	0	0	0	1	0	0	0	0	0;
	76	2	0	0	0	0	0	1	0	0	0	0	0;
	77	1	0	0	0	0	0	1	0	0	0	0	0;
	78	1	26.3744254	0	0	0	0	1	0	0	0	0	0;
	79	1	0	0	0	0	0	1	0	0	0	0	0;
	80	1	0	0	0	0	0	1	0	0	0	0	0;
	81	1	0	0	0	0	0	1	0	0	0	0	0;
	82	1	0.37091234	0	0	0	0	1	0	0	0	0	0;
	83	1	0.4438158	0	0	0	0	1	0	0	0	0	0;
	84	1	0	0	0	0	0	1	0	0	0	0	0;
	85	1	1.87002429	0	0	0	0	1	0	0	0	0	0;
	86	1	0.45340836	0	0	0	0	1	0	0	0	0	0;
	87	1	0	0	0	0	0	1	0	0	0	0	0;
	88	2	0	0	0	0	0	1	0	0	0	0	0;
	89	1	0.560205534	0	0	0	0	1	0	0	0	0	0;
	90	1	0	0	0	0	0	1	0	0	0	0	0;
	91	2	0	0	0	0	0	1	0	0	0	0	0;
	92	1	0	0	0	0	0	1	0	0	0	0	0;
	93	1	0	0	0	0	0	1	0	0	0	0	0;
	94	1	0	0	0	0	0	1	0	0	0	0	0;
	95	1	0	0	0	0	0	1	0	0	0	0	0;
	96	1	1.00721885	0	0	0	0	1	0	0	0	0	0;
	97	1	0	0	0	0	0	1	0	0	0	0	0;
	98	1	12.4709682	0	0	0	0	1	0	0	0	0	0;
	99	1	0	0	0	0	0	1	0	0	0	0	0;
	100	1	3.48657599	0	0	0	0	1	0	0	0	0	0;
	101	1	0	0	0	0	0	1	0	0	0	0	0;
	102	1	0	0	0	0	0	1	0	0	0	0	0;
	103	1	0	0	0	0	0	1	0	0	0	0	0;
	104	1	0	0	0	0	0	1	0	0	0	0	0;
	105	1	1.30650674	0	0	0	0	1	0	0	0	0	0;
	106	1	0	0	0	0	0	1	0	0	0	0	0;
	107	1	0	0	0	0	0	1	0	0	0	0	0;
	108	1	0	0	0	0	0	1	0	0	0	0	0;
	109	1	0	0	0	0	0	1	0	0	0	0	0;
	110	1	0	0	0	0	0	1	0	0	0	0	0;
	111	1	4.10689491	0	0	0	0	1	0	0	0	0	0;
	112	1	3.62854589	0	0	0	0	1	0	0	0	0	0;
	113	1	0	0	0	0	0	1	0	0	0	0	0;
	114	1	0	0	0	0	0	1	0	0	0	0	0;
	115	1	20.1143204	0	0	0	0	1	0	0	0	0	0;
	116	1	0	0	0	0	0	1	0	0	0	0	0;
	117	1	0	0	0	0	0	1	0	0	0	0	0;
	118	1	0	0	0	0	0	1	0	0	0	0	0;
	119	1	0	0	0	0	0	1	0	0	0	0	0;
	120	1	0	0	0	0	0	1	0	0	0	0	0;
	121	1	0	0	0	0	0	1	0	0	0	0	0;
	122	1	0	0	0	0	0	1	0	0	0	0	0;
	123	1	0	0	0	0	0	1	0	0	0	0	0;
	124	1	0	0	0	0	0	1	0	0	0	0	0;
	125	1	12.4812002	0	0	0	0	1	0	0	0	0	0;
	126	1	0	0	0	0	0	1	0	0	0	0	0;
	127	1	5.56176658	0	0	0	0	1	0	0	0	0	0;
	128	1	7.13878353	0	0	0	0	1	0	0	0	0	0;
	129	1	0	0	0	0	0	1	0	0	0	0	0;
	130	2	0	0	0	0	0	1	0	0	0	0	0;
	131	1	0	0	0	0	0	1	0	0	0	0	0;
	132	1	14.344715	0	0	0	0	1	0	0	0	0	0;
	133	1	0	0	0	0	0	1	0	0	0	0	0;
	134	1	0	0	0	0	0	1	0	0	0	0	0;
	135	1	0	0	0	0	0	1	0	0	0	0	0;
	136	1	0	0	0	0	0	1	0	0	0	0	0;
	137	1	1.44814851	0	0	0	0	1	0	0	0	0	0;
	138	1	1.9504873	0	0	0	0	1	0	0	0	0	0;
	139	1	0	0	0	0	0	1	0	0	0	0	0;
	140	1	0	0	0	0	0	1	0	0	0	0	0;
	141	1	0	0	0	0	0	1	0	0	0	0	0;
	142	1	7.19314138	0	0	0	0	1	0	0	0	0	0;
	143	1	0	0	0	0	0	1	0	0	0	0	0;
	144	1	0	0	0	0	0	1	0	0	0	0	0;
	145	1	0.913211761	0	0	0	0	1	0	0	0	0	0;
	146	1	0	0	0	0	0	1	0	0	0	0	0;
	147	1	0	0	0	0	0	1	0	0	0	0	0;
	148	1	0	0	0	0	0	1	0	0	0	0	0;
	149	1	0	0	0	0	0	1	0	0	0	0	0;
	150	1	0	0	0	0	0	1	0	0	0	0	0;
	151	1	1.75479907	0	0	0	0	1	0	0	0	0	0;
	152	1	0	0	0	0	0	1	0	0	0	0	0;
	153	1	3.02677259	0	0	0	0	1	0	0	0	0	0;
	154	1	0	0	0	0	0	1	0	0	0	0	0;
	155	1	0	0	0	0	0	1	0	0	0	0	0;
	156	2	0	0	0	0	0	1	0	0	0	0	0;
	157	1	0	0	0	0	0	1	0	0	0	0	0;
	158	1	0	0	0	0	0	1	0	0	0	0	0;
	159	2	0	0	0	0	0	1	0	0	0	0	0;
	160	1	0.422072663	0	0	0	0	1	0	0	0	0	0;
	161	2	0	0	0	0	0	1	0	0	0	0	0;
	162	2	0	0	0	0	0	1	0	0	0	0	0;
	163	1	0	0	0	0	0	1	0	0	0	0	0;
	164	1	23.4531709	0	0	0	0	1	0	0	0	0	0;
	165	1	0	0	0	0	0	1	0	0	0	0	0;
	166	1	0	0	0	0	0	1	0	0	0	0	0;
	167	1	0	0	0	0	0	1	0	0	0	0	0;
	168	1	2.18326677	0	0	0	0	1	0	0	0	0	0;
	169	2	0	0	0	0	0	1	0	0	0	0	0;
	170	2	0	0	0	0	0	1	0	0	0	0	0;
	171	1	0	0	0	0	0	1	0	0	0	0	0;
	172	1	0	0	0	0	0	1	0	0	0	0	0;
	173	1	0	0	0	0	0	1	0	0	0	0	0;
	174	2	0	0	0	0	0	1	0	0	0	0	0;
	175	1	0	0	0	0	0	1	0	0	0	0	0;
	176	1	0	0	0	0	0	1	0	0	0	0	0;
	177	1	0	0	0	0	0	1	0	0	0	0	0;
	178	1	8.50156663	0	0	0	0	1	0	0	0	0	0;
	179	2	0	0	0	0	0	1	0	0	0	0	0;
	180	1	0	0	0	0	0	1	0	0	0	0	0;
	181	1	0	0	0	0	0	1	0	0	0	0	0;
	182	1	0	0	0	0	0	1	0	0	0	0	0;
	183	1	0	0	0	0	0	1	0	0	0	0	0;
	184	1	0	0	0	0	0	1	0	0	0	0	0;
	185	1	0	0	0	0	0	1	0	0	0	0	0;
	186	2	0	0	0	0	0	1	0	0	0	0	0;
	187	1	0	0	0	0	0	1	0	0	0	0	0;
	188	1	0	0	0	0	0	1	0	0	0	0	0;
	189	1	0	0	0	0	0	1	0	0	0	0	0;
	190	2	0	0	0	0	0	1	0	0	0	0	0;
	191	1	0	0	0	0	0	1	0	0	0	0	0;
	192	2	0	0	0	0	0	1	0	0	0	0	0;
	193	1	0	0	0	0	0	1	0	0	0	0	0;
	194	1	0	0	0	0	0	1	0	0	0	0	0;
	195	2	0	0	0	0	0	1	0	0	0	0	0;
	196	1	0	0	0	0	0	1	0	0	0	0	0;
	197	1	0.663165683	0	0	0	0	1	0	0	0	0	0;
	198	1	0	0	0	0	0	1	0	0	0	0	0;
	199	1	0	0	0	0	0	1	0	0	0	0	0;
	200	1	0.83071574	0	0	0	0	1	0	0	0	0	0;
...
];

%% generator data
%	bus	Pg	Qg	Qmax	Qmin	Vg	mBase	status	Pmax	Pmin	Pc1	Pc2	Qc1min	Qc1max	Qc2min	Qc2max	ramp_agc	ramp_10	ramp_30	ramp_q	apf
mpc.gen = [
	1329	17.7	0	0	0	1	0	1	17.7	0	0	0	0	0	0	0	0	0	0	0	0;
	1294	24.6	0	0	0	1	0	1	24.6	0	0	0	0	0	0	0	0	0	0	0	0;
	1708	48	0	0	0	1	0	1	48	0	0	0	0	0	0	0	0	0	0	0	0;
	1189	70	0	0	0	1	0	1	70	0	0	0	0	0	0	0	0	0	0	0	0;
	1300	26.4	0	0	0	1	0	1	26.4	0	0	0	0	0	0	0	0	0	0	0	0;
	1712	92	0	0	0	1	0	1	92	0	0	0	0	0	0	0	0	0	0	0	0;
	1772	89.4476834	0	0	0	1	0	1	89.4476834	0	0	0	0	0	0	0	0	0	0	0	0;
	2140	1	0	0	0	1	0	1	1	0	0	0	0	0	0	0	0	0	0	0	0;
	2137	1759.83909	0	0	0	1	0	1	1759.83909	0	0	0	0	0	0	0	0	0	0	0	0;
	1038	2160	0	0	0	1	0	1	2160	0	0	0	0	0	0	0	0	0	0	0	0;
	1037	125.4	0	0	0	1	0	1	125.4	0	0	0	0	0	0	0	0	0	0	0	0;
	1550	804.810365	0	0	0	1	0	1	804.810365	0	0	0	0	0	0	0	0	0	0	0	0;
	1549	810	0	0	0	1	0	1	810	0	0	0	0	0	0	0	0	0	0	0	0;
	2194	5.4	0	0	0	1	0	1	5.4	0	0	0	0	0	0	0	0	0	0	0	0;
	1253	13.3052159	0	0	0	1	0	1	13.3052159	0	0	0	0	0	0	0	0	0	0	0	0;
	2196	627.8	0	0	0	1	0	1	627.8	0	0	0	0	0	0	0	0	0	0	0	0;
	2129	650	0	0	0	1	0	1	650	0	0	0	0	0	0	0	0	0	0	0	0;
	1095	9.03979088	0	0	0	1	0	1	9.03979088	0	0	0	0	0	0	0	0	0	0	0	0;
	1112	980	0	0	0	1	0	1	980	0	0	0	0	0	0	0	0	0	0	0	0;
	1046	6.5	0	0	0	1	0	1	6.5	0	0	0	0	0	0	0	0	0	0	0	0;
	1200	6809	0	0	0	1	0	1	6809	0	0	0	0	0	0	0	0	0	0	0	0;
	2170	1299.6	0	0	0	1	0	1	1299.6	0	0	0	0	0	0	0	0	0	0	0	0;
	793	319	0	0	0	1	0	1	319	0	0	0	0	0	0	0	0	0	0	0	0;
	1094	601	0	0	0	1	0	1	601	0	0	0	0	0	0	0	0	0	0	0	0;
	72	245.963763	0	0	0	1	0	1	245.963763	0	0	0	0	0	0	0	0	0	0	0	0;
	638	11	0	0	0	1	0	1	11	0	0	0	0	0	0	0	0	0	0	0	0;
	707	59.2713176	0	0	0	1	0	1	59.2713176	0	0	0	0	0	0	0	0	0	0	0	0;
	611	13.1	0	0	0	1	0	1	13.1	0	0	0	0	0	0	0	0	0	0	0	0;
	91	100	0	0	0	1	0	1	100	0	0	0	0	0	0	0	0	0	0	0	0;
	2169	70	0	0	0	1	0	1	70	0	0	0	0	0	0	0	0	0	0	0	0;
	775	162	0	0	0	1	0	1	162	0	0	0	0	0	0	0	0	0	0	0	0;
	644	407.1	0	0	0	1	0	1	407.1	0	0	0	0	0	0	0	0	0	0	0	0;
	857	248	0	0	0	1	0	1	248	0	0	0	0	0	0	0	0	0	0	0	0;
	1776	2456.2	0	0	0	1	0	1	2456.2	0	0	0	0	0	0	0	0	0	0	0	0;
	1780	11.8529592	0	0	0	1	0	1	11.8529592	0	0	0	0	0	0	0	0	0	0	0	0;
	1110	63.7	0	0	0	1	0	1	63.7	0	0	0	0	0	0	0	0	0	0	0	0;
	1097	642	0	0	0	1	0	1	642	0	0	0	0	0	0	0	0	0	0	0	0;
	2048	1.4	0	0	0	1	0	1	1.4	0	0	0	0	0	0	0	0	0	0	0	0;
	2131	33	0	0	0	1	0	1	33	0	0	0	0	0	0	0	0	0	0	0	0;
	760	194.4	0	0	0	1	0	1	194.4	0	0	0	0	0	0	0	0	0	0	0	0;
	997	6.17331661	0	0	0	1	0	1	6.17331661	0	0	0	0	0	0	0	0	0	0	0	0;
	1007	7.8	0	0	0	1	0	1	7.8	0	0	0	0	0	0	0	0	0	0	0	0;
	186	78.4315646	0	0	0	1	0	1	78.4315646	0	0	0	0	0	0	0	0	0	0	0	0;
	190	20	0	0	0	1	0	1	20	0	0	0	0	0	0	0	0	0	0	0	0;
	195	26	0	0	0	1	0	1	26	0	0	0	0	0	0	0	0	0	0	0	0;
	162	15	0	0	0	1	0	1	15	0	0	0	0	0	0	0	0	0	0	0	0;
	161	112.284537	0	0	0	1	0	1	112.284537	0	0	0	0	0	0	0	0	0	0	0	0;
	1957	87.0155896	0	0	0	1	0	1	87.0155896	0	0	0	0	0	0	0	0	0	0	0	0;
	1995	25.5	0	0	0	1	0	1	25.5	0	0	0	0	0	0	0	0	0	0	0	0;
	1577	1.6	0	0	0	1	0	1	1.6	0	0	0	0	0	0	0	0	0	0	0	0;
	31	219.068318	0	0	0	1	0	1	219.068318	0	0	0	0	0	0	0	0	0	0	0	0;
	14	1819.7	0	0	0	1	0	1	1819.7	0	0	0	0	0	0	0	0	0	0	0	0;
	1040	459.090924	0	0	0	1	0	1	459.090924	0	0	0	0	0	0	0	0	0	0	0	0;
	782	292.729443	0	0	0	1	0	1	292.729443	0	0	0	0	0	0	0	0	0	0	0	0;
	23	204.018561	0	0	0	1	0	1	204.018561	0	0	0	0	0	0	0	0	0	0	0	0;
	88	12.0500825	0	0	0	1	0	1	12.0500825	0	0	0	0	0	0	0	0	0	0	0	0;
	1492	391.5	0	0	0	1	0	1	391.5	0	0	0	0	0	0	0	0	0	0	0	0;
	543	3.2	0	0	0	1	0	1	3.2	0	0	0	0	0	0	0	0	0	0	0	0;
	544	27	0	0	0	1	0	1	27	0	0	0	0	0	0	0	0	0	0	0	0;
	539	0.6	0	0	0	1	0	1	0.6	0	0	0	0	0	0	0	0	0	0	0	0;
	1483	4.44	0	0	0	1	0	1	4.44	0	0	0	0	0	0	0	0	0	0	0	0;
	757	69.6226744	0	0	0	1	0	1	69.6226744	0	0	0	0	0	0	0	0	0	0	0	0;
	756	227.931213	0	0	0	1	0	1	227.931213	0	0	0	0	0	0	0	0	0	0	0	0;
	46	6	0	0	0	1	0	1	6	0	0	0	0	0	0	0	0	0	0	0	0;
	352	2.8	0	0	0	1	0	1	2.8	0	0	0	0	0	0	0	0	0	0	0	0;
	419	6	0	0	0	1	0	1	6	0	0	0	0	0	0	0	0	0	0	0	0;
	513	1.2	0	0	0	1	0	1	1.2	0	0	0	0	0	0	0	0	0	0	0	0;
	1139	6.3	0	0	0	1	0	1	6.3	0	0	0	0	0	0	0	0	0	0	0	0;
	755	131.612517	0	0	0	1	0	1	131.612517	0	0	0	0	0	0	0	0	0	0	0	0;
	754	107.874428	0	0	0	1	0	1	107.874428	0	0	0	0	0	0	0	0	0	0	0	0;
	337	29	0	0	0	1	0	1	29	0	0	0	0	0	0	0	0	0	0	0	0;
	339	42.6	0	0	0	1	0	1	42.6	0	0	0	0	0	0	0	0	0	0	0	0;
	336	15	0	0	0	1	0	1	15	0	0	0	0	0	0	0	0	0	0	0	0;
	2181	45.6	0	0	0	1	0	1	45.6	0	0	0	0	0	0	0	0	0	0	0	0;
	1391	175.474983	0	0	0	1	0	1	175.474983	0	0	0	0	0	0	0	0	0	0	0	0;
	156	9.5	0	0	0	1	0	1	9.5	0	0	0	0	0	0	0	0	0	0	0	0;
	310	3.2	0	0	0	1	0	1	3.2	0	0	0	0	0	0	0	0	0	0	0	0;
	388	51.5	0	0	0	1	0	1	51.5	0	0	0	0	0	0	0	0	0	0	0	0;
	343	10.242533	0	0	0	1	0	1	10.242533	0	0	0	0	0	0	0	0	0	0	0	0;
	1480	25.08	0	0	0	1	0	1	25.08	0	0	0	0	0	0	0	0	0	0	0	0;
	21	301.75	0	0	0	1	0	1	301.75	0	0	0	0	0	0	0	0	0	0	0	0;
	38	28.6	0	0	0	1	0	1	28.6	0	0	0	0	0	0	0	0	0	0	0	0;
	63	18.9	0	0	0	1	0	1	18.9	0	0	0	0	0	0	0	0	0	0	0	0;
	51	1.1	0	0	0	1	0	1	1.1	0	0	0	0	0	0	0	0	0	0	0	0;
	480	3.2	0	0	0	1	0	1	3.2	0	0	0	0	0	0	0	0	0	0	0	0;
	487	619.1	0	0	0	1	0	1	619.1	0	0	0	0	0	0	0	0	0	0	0	0;
	491	98.7	0	0	0	1	0	1	98.7	0	0	0	0	0	0	0	0	0	0	0	0;
	130	96	0	0	0	1	0	1	96	0	0	0	0	0	0	0	0	0	0	0	0;
	879	52.2	0	0	0	1	0	1	52.2	0	0	0	0	0	0	0	0	0	0	0	0;
	1005	3	0	0	0	1	0	1	3	0	0	0	0	0	0	0	0	0	0	0	0;
	366	11	0	0	0	1	0	1	11	0	0	0	0	0	0	0	0	0	0	0	0;
	1412	140.4	0	0	0	1	0	1	140.4	0	0	0	0	0	0	0	0	0	0	0	0;
	1420	2.2	0	0	0	1	0	1	2.2	0	0	0	0	0	0	0	0	0	0	0	0;
	42	109.8	0	0	0	1	0	1	109.8	0	0	0	0	0	0	0	0	0	0	0	0;
	614	610.7	0	0	0	1	0	1	610.7	0	0	0	0	0	0	0	0	0	0	0	0;
	1907	1	0	0	0	1	0	1	1	0	0	0	0	0	0	0	0	0	0	0	0;
	1572	942.65548	0	0	0	1	0	1	942.65548	0	0	0	0	0	0	0	0	0	0	0	0;
	1781	763.891054	0	0	0	1	0	1	763.891054	0	0	0	0	0	0	0	0	0	0	0	0;
	391	18	0	0	0	1	0	1	18	0	0	0	0	0	0	0	0	0	0	0	0;
	496	2.1	0	0	0	1	0	1	2.1	0	0	0	0	0	0	0	0	0	0	0	0;
	495	20	0	0	0	1	0	1	20	0	0	0	0	0	0	0	0	0	0	0	0;
	406	17.2	0	0	0	1	0	1	17.2	0	0	0	0	0	0	0	0	0	0	0	0;
	1292	456.4	0	0	0	1	0	1	456.4	0	0	0	0	0	0	0	0	0	0	0	0;
	1497	189.574805	0	0	0	1	0	1	189.574805	0	0	0	0	0	0	0	0	0	0	0	0;
	2177	93.8	0	0	0	1	0	1	93.8	0	0	0	0	0	0	0	0	0	0	0	0;
	1283	35.0926893	0	0	0	1	0	1	35.0926893	0	0	0	0	0	0	0	0	0	0	0	0;
	1496	585.4	0	0	0	1	0	1	585.4	0	0	0	0	0	0	0	0	0	0	0	0;
	1444	27.1	0	0	0	1	0	1	27.1	0	0	0	0	0	0	0	0	0	0	0	0;
	1644	42	0	0	0	1	0	1	42	0	0	0	0	0	0	0	0	0	0	0	0;
	1546	810	0	0	0	1	0	1	810	0	0	0	0	0	0	0	0	0	0	0	0;
	344	18	0	0	0	1	0	1	18	0	0	0	0	0	0	0	0	0	0	0	0;
	342	8.80925897	0	0	0	1	0	1	8.80925897	0	0	0	0	0	0	0	0	0	0	0	0;
	334	26	0	0	0	1	0	1	26	0	0	0	0	0	0	0	0	0	0	0	0;
	333	33	0	0	0	1	0	1	33	0	0	0	0	0	0	0	0	0	0	0	0;
	348	5.20355348	0	0	0	1	0	1	5.20355348	0	0	0	0	0	0	0	0	0	0	0	0;
	347	3.8	0	0	0	1	0	1	3.8	0	0	0	0	0	0	0	0	0	0	0	0;
	346	32	0	0	0	1	0	1	32	0	0	0	0	0	0	0	0	0	0	0	0;
	359	49	0	0	0	1	0	1	49	0	0	0	0	0	0	0	0	0	0	0	0;
	356	10.5	0	0	0	1	0	1	10.5	0	0	0	0	0	0	0	0	0	0	0	0;
	396	0.75	0	0	0	1	0	1	0.75	0	0	0	0	0	0	0	0	0	0	0	0;
	192	111.727458	0	0	0	1	0	1	111.727458	0	0	0	0	0	0	0	0	0	0	0	0;
	159	18.8970541	0	0	0	1	0	1	18.8970541	0	0	0	0	0	0	0	0	0	0	0	0;
	174	65	0	0	0	1	0	1	65	0	0	0	0	0	0	0	0	0	0	0	0;
	170	8	0	0	0	1	0	1	8	0	0	0	0	0	0	0	0	0	0	0	0;
	169	10.8249306	0	0	0	1	0	1	10.8249306	0	0	0	0	0	0	0	0	0	0	0	0;
	1400	164.2	0	0	0	1	0	1	164.2	0	0	0	0	0	0	0	0	0	0	0	0;
	1027	1.2	0	0	0	1	0	1	1.2	0	0	0	0	0	0	0	0	0	0	0	0;
	27	46.727894	0	0	0	1	0	1	46.727894	0	0	0	0	0	0	0	0	0	0	0	0;
	18	75	0	0	0	1	0	1	75	0	0	0	0	0	0	0	0	0	0	0	0;
	26	24.5	0	0	0	1	0	1	24.5	0	0	0	0	0	0	0	0	0	0	0	0;
	983	1092.9	0	0	0	1	0	1	1092.9	0	0	0	0	0	0	0	0	0	0	0	0;
	1006	10	0	0	0	1	0	1	10	0	0	0	0	0	0	0	0	0	0	0	0;
	910	6.4	0	0	0	1	0	1	6.4	0	0	0	0	0	0	0	0	0	0	0	0;
	882	5.4	0	0	0	1	0	1	5.4	0	0	0	0	0	0	0	0	0	0	0	0;
	2207	15.4	0	0	0	1	0	1	15.4	0	0	0	0	0	0	0	0	0	0	0	0;
	179	3.88036272	0	0	0	1	0	1	3.88036272	0	0	0	0	0	0	0	0	0	0	0	0;
	748	1.2	0	0	0	1	0	1	1.2	0	0	0	0	0	0	0	0	0	0	0	0;
	1450	8.79799552	0	0	0	1	0	1	8.79799552	0	0	0	0	0	0	0	0	0	0	0	0;
	919	35.5	0	0	0	1	0	1	35.5	0	0	0	0	0	0	0	0	0	0	0	0;
	918	20.8	0	0	0	1	0	1	20.8	0	0	0	0	0	0	0	0	0	0	0	0;
	931	18.8	0	0	0	1	0	1	18.8	0	0	0	0	0	0	0	0	0	0	0	0;
	938	28.3776815	0	0	0	1	0	1	28.3776815	0	0	0	0	0	0	0	0	0	0	0	0;
	930	11.0326323	0	0	0	1	0	1	11.0326323	0	0	0	0	0	0	0	0	0	0	0	0;
	929	51	0	0	0	1	0	1	51	0	0	0	0	0	0	0	0	0	0	0	0;
	920	10.730046	0	0	0	1	0	1	10.730046	0	0	0	0	0	0	0	0	0	0	0	0;
	588	1.6	0	0	0	1	0	1	1.6	0	0	0	0	0	0	0	0	0	0	0	0;
	76	1	0	0	0	1	0	1	1	0	0	0	0	0	0	0	0	0	0	0	0;
	1012	581.3	0	0	0	1	0	1	581.3	0	0	0	0	0	0	0	0	0	0	0	0;
	1026	689.4	0	0	0	1	0	1	689.4	0	0	0	0	0	0	0	0	0	0	0	0;
	1489	95.9455268	0	0	0	1	0	1	95.9455268	0	0	0	0	0	0	0	0	0	0	0	0;
	1028	554.717486	0	0	0	1	0	1	554.717486	0	0	0	0	0	0	0	0	0	0	0	0;
	1886	20	0	0	0	1	0	1	20	0	0	0	0	0	0	0	0	0	0	0	0;
	1891	35.9	0	0	0	1	0	1	35.9	0	0	0	0	0	0	0	0	0	0	0	0;
	1888	16	0	0	0	1	0	1	16	0	0	0	0	0	0	0	0	0	0	0	0;
	1890	3.7	0	0	0	1	0	1	3.7	0	0	0	0	0	0	0	0	0	0	0	0;
	1960	12	0	0	0	1	0	1	12	0	0	0	0	0	0	0	0	0	0	0	0;
	778	70	0	0	0	1	0	1	70	0	0	0	0	0	0	0	0	0	0	0	0;
	776	17.627586	0	0	0	1	0	1	17.627586	0	0	0	0	0	0	0	0	0	0	0	0;
	1955	198	0	0	0	1	0	1	198	0	0	0	0	0	0	0	0	0	0	0	0;
	2027	75.8638668	0	0	0	1	0	1	75.8638668	0	0	0	0	0	0	0	0	0	0	0	0;
	1999	51.8	0	0	0	1	0	1	51.8	0	0	0	0	0	0	0	0	0	0	0	0;
	2026	35.8168085	0	0	0	1	0	1	35.8168085	0	0	0	0	0	0	0	0	0	0	0	0;
	1511	6.6	0	0	0	1	0	1	6.6	0	0	0	0	0	0	0	0	0	0	0	0;
	1186	28.9926588	0	0	0	1	0	1	28.9926588	0	0	0	0	0	0	0	0	0	0	0	0;
	1314	10	0	0	0	1	0	1	10	0	0	0	0	0	0	0	0	0	0	0	0;
	1702	27.37	0	0	0	1	0	1	27.37	0	0	0	0	0	0	0	0	0	0	0	0;
	1667	32	0	0	0	1	0	1	32	0	0	0	0	0	0	0	0	0	0	0	0;
	1515	148.236169	0	0	0	1	0	1	148.236169	0	0	0	0	0	0	0	0	0	0	0	0;
	1514	1038	0	0	0	1	0	1	1038	0	0	0	0	0	0	0	0	0	0	0	0;
	1078	1200	0	0	0	1	0	1	1200	0	0	0	0	0	0	0	0	0	0	0	0;
	1137	12	0	0	0	1	0	1	12	0	0	0	0	0	0	0	0	0	0	0	0;
	1063	1.6	0	0	0	1	0	1	1.6	0	0	0	0	0	0	0	0	0	0	0	0;
	1409	150	0	0	0	1	0	1	150	0	0	0	0	0	0	0	0	0	0	0	0;
	1568	9.4	0	0	0	1	0	1	9.4	0	0	0	0	0	0	0	0	0	0	0	0;
	1713	618.155567	0	0	0	1	0	1	618.155567	0	0	0	0	0	0	0	0	0	0	0	0;
	1142	12.9	0	0	0	1	0	1	12.9	0	0	0	0	0	0	0	0	0	0	0	0;
];

%% branch data
%	fbus	tbus	r	x	b	rateA	rateB	rateC	ratio	angle	status	angmin	angmax
mpc.branch = [
	2208	1	0	5.86	0	5	0	0	0	0	1	-360	360;
	10	2	0	0.52	0	5	0	0	0	0	1	-360	360;
	7	3	0	0.23	0	5	0	0	0	0	1	-360	360;
	5	4	0	0.33	0	5	0	0	0	0	1	-360	360;
	7	5	0	0.27	0	5	0	0	0	0	1	-360	360;
	8	5	0	1	0	5	0	0	0	0	1	-360	360;
	7	6	0	0.32	0	5	0	0	0	0	1	-360	360;
	8	6	0	0.48	0	5	0	0	0	0	1	-360	360;
	9	8	0	0.95	0	5	0	0	0	0	1	-360	360;
	10	9	0	0.77	0	5	0	0	0	0	1	-360	360;
	11	9	0	2.03	0	5	0	0	0	0	1	-360	360;
	12	10	0	1.68	0	5	0	0	0	0	1	-360	360;
	2208	11	0	2.13	0	5	0	0	0	0	1	-360	360;
	2208	12	0	2.61	0	5	0	0	0	0	1	-360	360;
	15	13	0	7.61	0	5	0	0	0	0	1	-360	360;
	15	14	0	1.22	0	2183.6	0	0	0	0	1	-360	360;
	2200	14	0	1.19	0	2183.6	0	0	0	0	1	-360	360;
	2200	15	0	0.21	0	2180.44	0	0	0	0	1	-360	360;
	17	16	0	33.79	0	5	0	0	0	0	1	-360	360;
	32	17	0	10.87	0	6.97094	0	0	0	0	1	-360	360;
	31	18	0	11.25	0	632.164744	0	0	0	0	1	-360	360;
	20	19	0	10.94	0	14.7326	0	0	0	0	1	-360	360;
	21	20	0	18.54	0	14.7326	0	0	0	0	1	-360	360;
	22	21	0	10.75	0	441.725233	0	0	0	0	1	-360	360;
	25	22	0	17.43	0	444.293812	0	0	0	0	1	-360	360;
	24	23	0	4.59	0	600.030221	0	0	0	0	1	-360	360;
	25	24	0	16.45	0	700.664916	0	0	0	0	1	-360	360;
	26	25	0	2.59	0	1191.81617	0	0	0	0	1	-360	360;
	31	26	0	16.27	0	1216.31617	0	0	0	0	1	-360	360;
	30	27	0	0.04	0	124.727894	0	0	0	0	1	-360	360;
	29	28	0	7.48	0	5	0	0	0	0	1	-360	360;
	30	29	0	23.37	0	1030.545	0	0	0	0	1	-360	360;
	32	29	0	6.25	0	1030.545	0	0	0	0	1	-360	360;
	31	30	0	55.16	0	974.47	0	0	0	0	1	-360	360;
	2200	31	0	37.7	0	1488.65614	0	0	0	0	1	-360	360;
	33	32	0	47.93	0	1023.573	0	0	0	0	1	-360	360;
	2203	33	0	50.01	0	1022.101	0	0	0	0	1	-360	360;
	2195	34	0	25.87	0	5	0	0	0	0	1	-360	360;
	2193	35	0	26.75	0	2039.25	0	0	0	0	1	-360	360;
	2200	35	0	103.28	0	2039.25	0	0	0	0	1	-360	360;
	2193	36	0	87.06	0	2024	0	0	0	0	1	-360	360;
	2194	36	0	15.9949234	0	5639.05	0	0	0	0	1	-360	360;
	2195	36	0	17.9855003	0	7053.5	0	0	0	0	1	-360	360;
	558	37	0	17.47	0	5	0	0	0	0	1	-360	360;
	39	38	0	24.27	0	34.3	0	0	0	0	1	-360	360;
	41	39	0	16.5	0	2710.24	0	0	0	0	1	-360	360;
	73	39	0	42.69	0	2705.24	0	0	0	0	1	-360	360;
	41	40	0	96.48	0	2254.78	0	0	0	0	1	-360	360;
	2200	40	0	1.51	0	1535.98	0	0	0	0	1	-360	360;
	73	41	0	59.12	0	2710.05	0	0	0	0	1	-360	360;
	2203	41	0	50.45	0	2793.8	0	0	0	0	1	-360	360;
	72	42	0	12.68	0	131.7	0	0	0	0	1	-360	360;
	44	43	0	12.08	0	952.927	0	0	0	0	1	-360	360;
	73	43	0	18.65	0	1677.88	0	0	0	0	1	-360	360;
	558	43	0	5.71	0	2267.29	0	0	0	0	1	-360	360;
	71	44	0	8.67047564	0	871.357	0	0	0	0	1	-360	360;
	73	44	0	13.08	0	1887.19	0	0	0	0	1	-360	360;
	2194	44	0	26.71	0	2190.67	0	0	0	0	1	-360	360;
	46	45	0	10.85	0	674.428	0	0	0	0	1	-360	360;
	70	45	0	15.5	0	674.428	0	0	0	0	1	-360	360;
	71	46	0	13.11	0	681.628	0	0	0	0	1	-360	360;
	53	47	0	3.28	0	1647.13	0	0	0	0	1	-360	360;
	70	47	0	19.58	0	1850.56	0	0	0	0	1	-360	360;
	52	48	0	3.11	0	56.5143	0	0	0	0	1	-360	360;
	52	49	0	1.73	0	134.678	0	0	0	0	1	-360	360;
	51	50	0	75.87	0	5.74773	0	0	0	0	1	-360	360;
	52	51	0	2.68	0	1074.326	0	0	0	0	1	-360	360;
	53	51	0	4.79	0	1078.754	0	0	0	0	1	-360	360;
	558	52	0	9.56	0	883.134	0	0	0	0	1	-360	360;
	69	53	0	9.05	0	942.901	0	0	0	0	1	-360	360;
	68	54	0	39.61	0	67.78	0	0	0	0	1	-360	360;
	56	55	0	9.33	0	19.1523	0	0	0	0	1	-360	360;
	68	56	0	10.67	0	1343.34	0	0	0	0	1	-360	360;
	69	56	0	24.26	0	1218.54	0	0	0	0	1	-360	360;
	67	57	0	2.42	0	1152.667	0	0	0	0	1	-360	360;
	72	57	0	3.09	0	1152.667	0	0	0	0	1	-360	360;
	59	58	0	3.82	0	5	0	0	0	0	1	-360	360;
	60	59	0	1.27	0	633.376	0	0	0	0	1	-360	360;
	73	59	0	11.57	0	633.376	0	0	0	0	1	-360	360;
	61	60	0	13.33	0	633.376	0	0	0	0	1	-360	360;
	67	61	0	14.32	0	636.4	0	0	0	0	1	-360	360;
	64	62	0	6.68	0	5	0	0	0	0	1	-360	360;
	64	63	0	14.71	0	22.6	0	0	0	0	1	-360	360;
	65	63	0	9.16	0	22.6	0	0	0	0	1	-360	360;
	65	64	0	24.04	0	13.1275	0	0	0	0	1	-360	360;
	66	65	0	8.2	0	590.38	0	0	0	0	1	-360	360;
	67	65	0	5.36	0	577.254	0	0	0	0	1	-360	360;
	68	66	0	43.06	0	590.38	0	0	0	0	1	-360	360;
	73	68	0	10.79	0	965.415	0	0	0	0	1	-360	360;
	558	69	0	0.73	0	2161.45	0	0	0	0	1	-360	360;
	72	70	0	39.87	0	997.792	0	0	0	0	1	-360	360;
	73	70	0	2.86	0	1448.32	0	0	0	0	1	-360	360;
	2193	71	0	14.7673472	0	4841.44	0	0	0	0	1	-360	360;
	2194	71	0	12.7499922	0	4746.94	0	0	0	0	1	-360	360;
	613	72	0	161.59	0	814.604	0	0	0	0	1	-360	360;
	2193	72	0	26.55	0	786.789	0	0	0	0	1	-360	360;
	75	74	0	0.96	0	14.1007	0	0	0	0	1	-360	360;
	557	75	0	29.1	0	1437.97	0	0	0	0	1	-360	360;
	613	75	0	13.19	0	1452.07	0	0	0	0	1	-360	360;
	556	76	0	8.98	0	914.23	0	0	0	0	1	-360	360;
	557	76	0	12.4	0	913.03	0	0	0	0	1	-360	360;
	78	77	0	2.76	0	5	0	0	0	0	1	-360	360;
	80	78	0	11.59	0	139.358	0	0	0	0	1	-360	360;
	80	79	0	7.26	0	5	0	0	0	0	1	-360	360;
	554	80	0	5.08	0	139.358	0	0	0	0	1	-360	360;
	554	81	0	6.71	0	5	0	0	0	0	1	-360	360;
	83	82	0	6.82	0	5	0	0	0	0	1	-360	360;
	554	83	0	15.62	0	5	0	0	0	0	1	-360	360;
	554	84	0	6.25	0	5	0	0	0	0	1	-360	360;
	135	85	0	10.87	0	9.8809	0	0	0	0	1	-360	360;
	87	86	0	16.29	0	5	0	0	0	0	1	-360	360;
	91	87	0	0.43	0	5	0	0	0	0	1	-360	360;
	89	88	0	1.05	0	14.4601	0	0	0	0	1	-360	360;
	90	89	0	2.55	0	11.6240703	0	0	0	0	1	-360	360;
	91	90	0	1.54	0	11.6240703	0	0	0	0	1	-360	360;
	135	91	0	37.14	0	131.498	0	0	0	0	1	-360	360;
	93	92	0	43.42	0	893.646	0	0	0	0	1	-360	360;
	2203	92	0	109.92	0	893.646	0	0	0	0	1	-360	360;
	135	93	0	1.29	0	893.646	0	0	0	0	1	-360	360;
	97	94	0	5.59	0	5	0	0	0	0	1	-360	360;
	96	95	0	0.34	0	5	0	0	0	0	1	-360	360;
	97	96	0	8.45	0	804.067	0	0	0	0	1	-360	360;
	134	96	0	10.84	0	809.389	0	0	0	0	1	-360	360;
	556	97	0	7.69	0	804.067	0	0	0	0	1	-360	360;
	99	98	0	16.28	0	65.8945	0	0	0	0	1	-360	360;
	134	99	0	28	0	2731.38	0	0	0	0	1	-360	360;
	555	99	0	11.77	0	2665.48	0	0	0	0	1	-360	360;
	101	100	0	10.41	0	1817.02	0	0	0	0	1	-360	360;
	135	100	0	8.63	0	2419.21	0	0	0	0	1	-360	360;
	554	100	0	59.22	0	933.963	0	0	0	0	1	-360	360;
	134	101	0	26.69	0	687.931	0	0	0	0	1	-360	360;
	556	101	0	16.56	0	1624.22	0	0	0	0	1	-360	360;
	103	102	0	9.07	0	213.5	0	0	0	0	1	-360	360;
	104	102	0	2.19	0	213.5	0	0	0	0	1	-360	360;
	133	103	0	12.35	0	213.5	0	0	0	0	1	-360	360;
	105	104	0	5.01	0	213.5	0	0	0	0	1	-360	360;
	106	105	0	1.32	0	206.596	0	0	0	0	1	-360	360;
	107	106	0	4.07	0	206.596	0	0	0	0	1	-360	360;
	557	107	0	14.47	0	206.596	0	0	0	0	1	-360	360;
	133	108	0	2.45	0	1116.21	0	0	0	0	1	-360	360;
	557	108	0	6.7	0	1116.21	0	0	0	0	1	-360	360;
	110	109	0	0.07	0	5	0	0	0	0	1	-360	360;
	132	110	0	1.82	0	1513.65	0	0	0	0	1	-360	360;
	134	110	0	0.12	0	1513.65	0	0	0	0	1	-360	360;
	112	111	0	12.12	0	1005.58	0	0	0	0	1	-360	360;
	116	111	0	19.49	0	1027.281	0	0	0	0	1	-360	360;
	131	112	0	8.88	0	986.408	0	0	0	0	1	-360	360;
	114	113	0	18.89	0	977.959	0	0	0	0	1	-360	360;
	116	113	0	1.57	0	977.959	0	0	0	0	1	-360	360;
	115	114	0	22.05	0	977.959	0	0	0	0	1	-360	360;
	131	115	0	3.36	0	792.682	0	0	0	0	1	-360	360;
	133	115	0	6.67	0	1287.66	0	0	0	0	1	-360	360;
	135	116	0	2.06	0	2005.23	0	0	0	0	1	-360	360;
	118	117	0	6.52	0	1068.412	0	0	0	0	1	-360	360;
	131	117	0	4.37	0	554.122	0	0	0	0	1	-360	360;
	557	117	0	12.74	0	1091.218	0	0	0	0	1	-360	360;
	132	118	0	14.48	0	1012.843	0	0	0	0	1	-360	360;
	2204	118	0	22.42	0	1565.7	0	0	0	0	1	-360	360;
	120	119	0	6.13	0	5	0	0	0	0	1	-360	360;
	121	120	0	1.55	0	5	0	0	0	0	1	-360	360;
	122	121	0	5.77	0	1239.69	0	0	0	0	1	-360	360;
	129	121	0	18.24	0	1239.69	0	0	0	0	1	-360	360;
	123	122	0	2.44	0	1239.69	0	0	0	0	1	-360	360;
	132	123	0	1.8	0	909.45	0	0	0	0	1	-360	360;
	554	123	0	22.67	0	1042.503	0	0	0	0	1	-360	360;
	125	124	0	5.68	0	5	0	0	0	0	1	-360	360;
	126	125	0	11.91	0	360.993	0	0	0	0	1	-360	360;
	128	125	0	5.92	0	295.045	0	0	0	0	1	-360	360;
	127	126	0	4.65	0	732.945	0	0	0	0	1	-360	360;
	2204	126	0	9.4	0	929.505	0	0	0	0	1	-360	360;
	128	127	0	7.06	0	439.194	0	0	0	0	1	-360	360;
	130	127	0	30.54	0	1155.219	0	0	0	0	1	-360	360;
	2204	127	0	14.13	0	878.173	0	0	0	0	1	-360	360;
	129	128	0	10.08	0	672.786	0	0	0	0	1	-360	360;
	2204	129	0	14.64	0	968.77	0	0	0	0	1	-360	360;
	131	130	0	6.24	0	713.995	0	0	0	0	1	-360	360;
	133	130	0	2.41	0	1663.75	0	0	0	0	1	-360	360;
	134	133	0	0.19	0	2498.24	0	0	0	0	1	-360	360;
	2192	135	0	3.74	0	3383.07	0	0	0	0	1	-360	360;
	552	136	0	1.23	0	5	0	0	0	0	1	-360	360;
	138	137	0	10.52	0	7.65177	0	0	0	0	1	-360	360;
	141	138	0	0.25	0	1961.14	0	0	0	0	1	-360	360;
	153	138	0	15.5	0	1943.19	0	0	0	0	1	-360	360;
	140	139	0	14.99	0	1762.2	0	0	0	0	1	-360	360;
	141	139	0	1.61	0	1762.2	0	0	0	0	1	-360	360;
	153	140	0	13.15	0	1398.31	0	0	0	0	1	-360	360;
	555	140	0	8.5	0	1036.609	0	0	0	0	1	-360	360;
	557	141	0	23.78	0	3041.2	0	0	0	0	1	-360	360;
	143	142	0	2.38	0	38.0073	0	0	0	0	1	-360	360;
	144	143	0	3.31	0	1637.43	0	0	0	0	1	-360	360;
	152	143	0	3.77	0	1675.45	0	0	0	0	1	-360	360;
	553	144	0	11.25	0	1637.43	0	0	0	0	1	-360	360;
	147	145	0	12.45	0	5	0	0	0	0	1	-360	360;
	147	146	0	1.33	0	5	0	0	0	0	1	-360	360;
	148	147	0	12.41	0	5	0	0	0	0	1	-360	360;
	149	148	0	9.69	0	866.272	0	0	0	0	1	-360	360;
	150	148	0	4.8	0	871.098	0	0	0	0	1	-360	360;
	152	149	0	0.86	0	866.272	0	0	0	0	1	-360	360;
	151	150	0	9.4	0	871.098	0	0	0	0	1	-360	360;
	555	151	0	5.87	0	880.37	0	0	0	0	1	-360	360;
...
];

%%-----  OPF Data  -----%%
%% generator cost data
%	1	startup	shutdown	n	x1	y1	...	xn	yn
%	2	startup	shutdown	n	c(n-1)	...	c0
mpc.gencost = [
	2	0	0	2	20	0;
	2	0	0	2	20	0;
	2	0	0	2	20	0;
	2	0	0	2	20	0;
	2	0	0	2	20	0;
	2	0	0	2	20	0;
	2	0	0	2	20	0;
	2	0	0	2	20	0;
	2	0	0	2	24	0;
	2	0	0	2	20	0;
	2	0	0	2	45	0;
	2	0	0	2	20	0;
	2	0	0	2	20	0;
	2	0	0	2	20	0;
	2	0	0	2	20	0;
	2	0	0	2	45	0;
	2	0	0	2	45	0;
	2	0	0	2	20	0;
	2	0	0	2	20	0;
	2	0	0	2	20	0;
	2	0	0	2	20	0;
	2	0	0	2	20	0;
	2	0	0	2	45	0;
	2	0	0	2	24	0;
	2	0	0	2	45	0;
	2	0	0	2	20	0;
	2	0	0	2	20	0;
	2	0	0	2	20	0;
	2	0	0	2	20	0;
	2	0	0	2	20	0;
	2	0	0	2	20	0;
	2	0	0	2	24	0;
	2	0	0	2	45	0;
	2	0	0	2	20	0;
	2	0	0	2	45	0;
	2	0	0	2	45	0;
	2	0	0	2	20	0;
	2	0	0	2	45	0;
	2	0	0	2	45	0;
	2	0	0	2	45	0;
	2	0	0	2	45	0;
	2	0	0	2	45	0;
	2	0	0	2	45	0;
	2	0	0	2	20	0;
	2	0	0	2	20	0;
	2	0	0	2	20	0;
	2	0	0	2	20	0;
	2	0	0	2	20	0;
	2	0	0	2	20	0;
	2	0	0	2	20	0;
	2	0	0	2	20	0;
	2	0	0	2	20	0;
	2	0	0	2	24	0;
	2	0	0	2	20	0;
	2	0	0	2	24	0;
	2	0	0	2	20	0;
	2	0	0	2	20	0;
	2	0	0	2	20	0;
	2	0	0	2	20	0;
	2	0	0	2	20	0;
	2	0	0	2	20	0;
	2	0	0	2	20	0;
	2	0	0	2	20	0;
	2	0	0	2	20	0;
	2	0	0	2	20	0;
	2	0	0	2	20	0;
	2	0	0	2	20	0;
	2	0	0	2	20	0;
	2	0	0	2	20	0;
	2	0	0	2	20	0;
	2	0	0	2	20	0;
	2	0	0	2	20	0;
	2	0	0	2	20	0;
	2	0	0	2	20	0;
	2	0	0	2	20	0;
	2	0	0	2	20	0;
	2	0	0	2	20	0;
	2	0	0	2	20	0;
	2	0	0	2	20	0;
	2	0	0	2	20	0;
	2	0	0	2	24	0;
	2	0	0	2	20	0;
	2	0	0	2	20	0;
	2	0	0	2	20	0;
	2	0	0	2	20	0;
	2	0	0	2	45	0;
	2	0	0	2	20	0;
	2	0	0	2	45	0;
	2	0	0	2	45	0;
	2	0	0	2	20	0;
	2	0	0	2	20	0;
	2	0	0	2	20	0;
	2	0	0	2	20	0;
	2	0	0	2	20	0;
	2	0	0	2	45	0;
	2	0	0	2	45	0;
	2	0	0	2	20	0;
	2	0	0	2	20	0;
	2	0	0	2	20	0;
	2	0	0	2	20	0;
	2	0	0	2	20	0;
	2	0	0	2	20	0;
	2	0	0	2	24	0;
	2	0	0	2	45	0;
	2	0	0	2	45	0;
	2	0	0	2	45	0;
	2	0	0	2	24	0;
	2	0	0	2	20	0;
	2	0	0	2	20	0;
	2	0	0	2	20	0;
	2	0	0	2	20	0;
	2	0	0	2	20	0;
	2	0	0	2	20	0;
	2	0	0	2	20	0;
	2	0	0	2	20	0;
	2	0	0	2	20	0;
	2	0	0	2	20	0;
	2	0	0	2	20	0;
	2	0	0	2	20	0;
	2	0	0	2	20	0;
	2	0	0	2	20	0;
	2	0	0	2	45	0;
	2	0	0	2	45	0;
	2	0	0	2	45	0;
	2	0	0	2	45	0;
	2	0	0	2	45	0;
	2	0	0	2	45	0;
	2	0	0	2	45	0;
	2	0	0	2	45	0;
	2	0	0	2	45	0;
	2	0	0	2	20	0;
	2	0	0	2	20	0;
	2	0	0	2	20	0;
	2	0	0	2	20	0;
	2	0	0	2	20	0;
	2	0	0	2	20	0;
	2	0	0	2	20	0;
	2	0	0	2	20	0;
	2	0	0	2	20	0;
	2	0	0	2	20	0;
	2	0	0	2	20	0;
	2	0	0	2	20	0;
	2	0	0	2	20	0;
	2	0	0	2	20	0;
	2	0	0	2	20	0;
	2	0	0	2	20	0;
	2	0	0	2	20	0;
	2	0	0	2	24	0;
	2	0	0	2	45	0;
	2	0	0	2	20	0;
	2	0	0	2	45	0;
	2	0	0	2	20	0;
	2	0	0	2	20	0;
	2	0	0	2	20	0;
	2	0	0	2	20	0;
	2	0	0	2	20	0;
	2	0	0	2	20	0;
	2	0	0	2	20	0;
	2	0	0	2	20	0;
	2	0	0	2	20	0;
	2	0	0	2	20	0;
	2	0	0	2	20	0;
	2	0	0	2	20	0;
	2	0	0	2	20	0;
	2	0	0	2	20	0;
	2	0	0	2	20	0;
	2	0	0	2	20	0;
	2	0	0	2	20	0;
	2	0	0	2	20	0;
	2	0	0	2	11.7	0;
	2	0	0	2	20	0;
	2	0	0	2	20	0;
	2	0	0	2	20	0;
	2	0	0	2	20	0;
	2	0	0	2	20	0;
	2	0	0	2	20	0;
];
